
Spectre (R) Circuit Simulator
Version 18.1.0.421.isr9 32bit -- 17 Jul 2019
Copyright (C) 1989-2019 Cadence Design Systems, Inc. All rights reserved worldwide. Cadence and Spectre are registered trademarks of Cadence Design Systems, Inc. All others are the property of their respective holders.

Includes RSA BSAFE(R) Cryptographic or Security Protocol Software from RSA Security, Inc.

User: rohitbarichello   Host: n02-hera.olympus.ece.tamu.edu   HostID: A8C00C02   PID: 10258
Memory  available: 468.8331 GB  physical: 540.7671 GB
Linux   : CentOS Linux release 7.9.2009 (Core)
CPU Type: Intel(R) Xeon(R) CPU E5-2650 v3 @ 2.30GHz
        Socket: Processors [Frequency] (Hyperthreaded Processor)
        0:       0 [2608.8] ( 20 ),  2 [2613.3] ( 22 ),  4 [2600.0] ( 24 )
                 6 [2600.0] ( 26 ),  8 [2600.0] ( 28 ), 10 [2605.9] ( 30 )
                12 [2612.3] ( 32 ), 14 [2608.3] ( 34 ), 16 [2600.0] ( 36 )
                18 [2600.0] ( 38 )
        1:       1 [2929.7] ( 21 ),  3 [2951.6] ( 23 ),  5 [1209.0] ( 25 )
                 7 [1200.1] ( 27 ),  9 [1773.4] ( 29 ), 11 [1220.3] ( 31 )
                13 [1248.1] ( 33 ), 15 [1200.0] ( 35 ), 17 [1899.8] ( 37 )
                19 [1243.4] ( 39 )
        
System load averages (1min, 5min, 15min) : 28.4 %, 28.6 %, 27.1 %
Hyperthreading is enabled
Affinity is set by user to processors:  0 20 

Simulating `simcap_xor2.spi' on n02-hera.olympus.ece.tamu.edu at 9:57:07 PM, Wed Apr 6, 2022 (process id: 10258).
Current working directory: /home/ugrads/r/rohitbarichello/cadence/cellcharacs
Command line:
    /opt/coe/cadence/SPECTRE181/tools.lnx86/bin/spectre simcap_xor2.spi

Loading /opt/coe/cadence/SPECTRE181/tools.lnx86/cmi/lib/5.0/libinfineon_sh.so ...
Loading /opt/coe/cadence/SPECTRE181/tools.lnx86/cmi/lib/5.0/libphilips_o_sh.so ...
Loading /opt/coe/cadence/SPECTRE181/tools.lnx86/cmi/lib/5.0/libphilips_sh.so ...
Loading /opt/coe/cadence/SPECTRE181/tools.lnx86/cmi/lib/5.0/libsparam_sh.so ...
Loading /opt/coe/cadence/SPECTRE181/tools.lnx86/cmi/lib/5.0/libstmodels_sh.so ...
Reading file:  /home/ugrads/r/rohitbarichello/cadence/cellcharacs/simcap_xor2.spi
Reading file:  /opt/coe/cadence/SPECTRE181/tools.lnx86/spectre/etc/configs/mapsubckt.cfg
Reading file:  /opt/coe/cadence/SPECTRE181/tools.lnx86/spectre/etc/configs/spectre.cfg
Reading file:  /home/ugrads/r/rohitbarichello/cadence/cellcharacs/model18.spi
Reading file:  /home/ugrads/r/rohitbarichello/cadence/cellcharacs/cell18.spi
Time for NDB Parsing: CPU = 91.002 ms, elapsed = 230.621 ms.
Time accumulated: CPU = 134.927 ms, elapsed = 230.627 ms.
Peak resident memory used = 45.4 Mbytes.

Time for Elaboration: CPU = 19.864 ms, elapsed = 22.0311 ms.
Time accumulated: CPU = 155.053 ms, elapsed = 252.96 ms.
Peak resident memory used = 50.3 Mbytes.


Time for EDB Visiting: CPU = 1.041 ms, elapsed = 1.0488 ms.
Time accumulated: CPU = 156.341 ms, elapsed = 254.287 ms.
Peak resident memory used = 51 Mbytes.


Warning from spectre during initial setup.
    WARNING (CMI-2426): X1.M4: `Pdiblc2' = -8.75063e-06 is negative.


Global user options:

Scoped user options:

Circuit inventory:
              nodes 11
            bsim3v3 12    
           resistor 1     
            vsource 3     

Analysis and control statement inventory:
                 ac 1     

Output statements:
             .probe 0     
           .measure 0     
               save 1     


Notice from spectre during initial setup.
    1 resistor is changed to resistance form because its value is less than 'rthresh'.
Warning from spectre during initial setup.
    WARNING (CMI-2426): X1.M4: `Pdiblc2' = -8.75063e-06 is negative.

Time for parsing: CPU = 24.419 ms, elapsed = 26.5799 ms.
Time accumulated: CPU = 181.011 ms, elapsed = 281.173 ms.
Peak resident memory used = 53 Mbytes.

~~~~~~~~~~~~~~~~~~~~~~
Pre-Simulation Summary
~~~~~~~~~~~~~~~~~~~~~~
~~~~~~~~~~~~~~~~~~~~~~

*******************************************
AC Analysis `Freq': freq = (10 Hz -> 1 GHz)
*******************************************
DC simulation time: CPU = 2.469 ms, elapsed = 1.24002 ms.

Opening the PSF file simcap_xor2.raw/Freq.ac ...
.......9.......8.......7.......6.......5.......4.......3.......2.......1.......0
Accumulated DC solution time =            0 s.
Intrinsic ac analysis time =              0 s.
Total time required for ac analysis `Freq': CPU = 20.078 ms, elapsed = 20.129 ms.
Time accumulated: CPU = 211.336 ms, elapsed = 312.833 ms.
Peak resident memory used = 54.5 Mbytes.


Aggregate audit (9:57:07 PM, Wed Apr 6, 2022):
Time used: CPU = 217 ms, elapsed = 320 ms, util. = 68%.
Time spent in licensing: elapsed = 24.6 ms, percentage of total = 7.7%.
Peak memory used = 55.1 Mbytes.
Simulation started at: 9:57:07 PM, Wed Apr 6, 2022, ended at: 9:57:07 PM, Wed Apr 6, 2022, with elapsed time (wall clock): 320 ms.
spectre completes with 0 errors, 2 warnings, and 2 notices.
