
Spectre (R) Circuit Simulator
Version 18.1.0.421.isr9 32bit -- 17 Jul 2019
Copyright (C) 1989-2019 Cadence Design Systems, Inc. All rights reserved worldwide. Cadence and Spectre are registered trademarks of Cadence Design Systems, Inc. All others are the property of their respective holders.

Includes RSA BSAFE(R) Cryptographic or Security Protocol Software from RSA Security, Inc.

User: rohitbarichello   Host: n01-zeus.olympus.ece.tamu.edu   HostID: A8C00A02   PID: 31496
Memory  available: 400.3410 GB  physical: 540.7671 GB
Linux   : CentOS Linux release 7.9.2009 (Core)
CPU Type: Intel(R) Xeon(R) CPU E5-2650 v3 @ 2.30GHz
        Socket: Processors [Frequency] (Hyperthreaded Processor)
        0:       0 [2600.0] ( 20 ),  2 [2599.9] ( 22 ),  4 [2600.0] ( 24 )
                 6 [2600.0] ( 26 ),  8 [1251.1] ( 28 ), 10 [1200.7] ( 30 )
                12 [2600.0] ( 32 ), 14 [2600.0] ( 34 ), 16 [2600.0] ( 36 )
                18 [1243.1] ( 38 )
        1:       1 [1258.1] ( 21 ),  3 [1203.6] ( 23 ),  5 [1200.4] ( 25 )
                 7 [1200.0] ( 27 ),  9 [1200.1] ( 29 ), 11 [1200.1] ( 31 )
                13 [1200.0] ( 33 ), 15 [1345.5] ( 35 ), 17 [2976.2] ( 37 )
                19 [1200.1] ( 39 )
        
System load averages (1min, 5min, 15min) : 17.3 %, 17.0 %, 16.8 %
Hyperthreading is enabled
Affinity is set by user to processors: 14 34 

Simulating `simcap.spi' on n01-zeus.olympus.ece.tamu.edu at 1:52:50 PM, Mon Apr 4, 2022 (process id: 31496).
Current working directory: /home/ugrads/r/rohitbarichello/cadence/cellcharacs
Command line:
    /opt/coe/cadence/SPECTRE181/tools.lnx86/bin/spectre simcap.spi

Loading /opt/coe/cadence/SPECTRE181/tools.lnx86/cmi/lib/5.0/libinfineon_sh.so ...
Loading /opt/coe/cadence/SPECTRE181/tools.lnx86/cmi/lib/5.0/libphilips_o_sh.so ...
Loading /opt/coe/cadence/SPECTRE181/tools.lnx86/cmi/lib/5.0/libphilips_sh.so ...
Loading /opt/coe/cadence/SPECTRE181/tools.lnx86/cmi/lib/5.0/libsparam_sh.so ...
Loading /opt/coe/cadence/SPECTRE181/tools.lnx86/cmi/lib/5.0/libstmodels_sh.so ...
Reading file:  /home/ugrads/r/rohitbarichello/cadence/cellcharacs/simcap.spi
Reading file:  /opt/coe/cadence/SPECTRE181/tools.lnx86/spectre/etc/configs/mapsubckt.cfg
Reading file:  /opt/coe/cadence/SPECTRE181/tools.lnx86/spectre/etc/configs/spectre.cfg
Reading file:  /home/ugrads/r/rohitbarichello/cadence/cellcharacs/model18.spi
Reading file:  /home/ugrads/r/rohitbarichello/cadence/cellcharacs/cell18.spi
Time for NDB Parsing: CPU = 89.754 ms, elapsed = 158.974 ms.
Time accumulated: CPU = 143.167 ms, elapsed = 158.981 ms.
Peak resident memory used = 45.4 Mbytes.

Time for Elaboration: CPU = 19.009 ms, elapsed = 19.824 ms.
Time accumulated: CPU = 162.43 ms, elapsed = 179.109 ms.
Peak resident memory used = 50.3 Mbytes.


Time for EDB Visiting: CPU = 869 us, elapsed = 877.857 us.
Time accumulated: CPU = 163.545 ms, elapsed = 180.278 ms.
Peak resident memory used = 50.9 Mbytes.


Warning from spectre during initial setup.
    WARNING (CMI-2426): X1.M1: `Pdiblc2' = -8.75063e-06 is negative.


Global user options:

Scoped user options:

Circuit inventory:
              nodes 5
            bsim3v3 2     
           resistor 1     
            vsource 3     

Analysis and control statement inventory:
                 ac 1     

Output statements:
             .probe 0     
           .measure 0     
               save 1     


Notice from spectre during initial setup.
    1 resistor is changed to resistance form because its value is less than 'rthresh'.
Warning from spectre during initial setup.
    WARNING (CMI-2426): X1.M1: `Pdiblc2' = -8.75063e-06 is negative.

Time for parsing: CPU = 6.779 ms, elapsed = 9.90295 ms.
Time accumulated: CPU = 170.551 ms, elapsed = 190.448 ms.
Peak resident memory used = 52.7 Mbytes.

~~~~~~~~~~~~~~~~~~~~~~
Pre-Simulation Summary
~~~~~~~~~~~~~~~~~~~~~~
~~~~~~~~~~~~~~~~~~~~~~

*******************************************
AC Analysis `Freq': freq = (10 Hz -> 1 GHz)
*******************************************
DC simulation time: CPU = 1.076 ms, elapsed = 538.111 us.

Opening the PSF file simcap.raw/Freq.ac ...
.......9.......8.......7.......6.......5.......4.......3.......2.......1.......0
Accumulated DC solution time =            0 s.
Intrinsic ac analysis time =              0 s.
Total time required for ac analysis `Freq': CPU = 10.966 ms, elapsed = 8.99005 ms.
Time accumulated: CPU = 197.186 ms, elapsed = 208.479 ms.
Peak resident memory used = 54.2 Mbytes.


Aggregate audit (1:52:50 PM, Mon Apr 4, 2022):
Time used: CPU = 205 ms, elapsed = 214 ms, util. = 95.9%.
Time spent in licensing: elapsed = 19.3 ms, percentage of total = 9.02%.
Peak memory used = 54.8 Mbytes.
Simulation started at: 1:52:50 PM, Mon Apr 4, 2022, ended at: 1:52:50 PM, Mon Apr 4, 2022, with elapsed time (wall clock): 214 ms.
spectre completes with 0 errors, 2 warnings, and 2 notices.
