Spectre (R) Circuit Simulator
Version 18.1.0.421.isr9 64bit -- 17 Jul 2019
Simulating `input.scs' on n01-zeus.olympus.ece.tamu.edu at 11:42:16 PM, Wed Apr 27, 2022 (process id: 2488).
H = mpsImport( "spectre" "ipi" "v0.0" ?session "spectre1_39882_1" )
H->sclSetResultDir( "../psf" )
H->sclRun( "all" )
sclCkt0x9d0bc70 = H->sclGetCircuit(  "" )
H->sclQuit(  )
