Spectre (R) Circuit Simulator
Version 18.1.0.421.isr9 64bit -- 17 Jul 2019
Simulating `input.scs' on n01-zeus.olympus.ece.tamu.edu at 4:54:48 PM, Tue Apr 19, 2022 (process id: 34831).
H = mpsImport( "spectre" "ipi" "v0.0" ?session "spectre1_40447_2" )
H->sclSetResultDir( "../psf" )
H->sclRun( "all" )
sclCkt0xa992c60 = H->sclGetCircuit(  "" )
H->sclQuit(  )
