Spectre (R) Circuit Simulator
Version 18.1.0.421.isr9 64bit -- 17 Jul 2019
Simulating `input.scs' on n01-zeus.olympus.ece.tamu.edu at 8:02:16 PM, Tue Apr 19, 2022 (process id: 38839).
H = mpsImport( "spectre" "ipi" "v0.0" ?session "spectre1_6156_2" )
H->sclSetResultDir( "../psf" )
H->sclRun( "all" )
sclCkt0xa738c60 = H->sclGetCircuit(  "" )
H->sclQuit(  )
