
Spectre (R) Circuit Simulator
Version 18.1.0.421.isr9 64bit -- 17 Jul 2019
Copyright (C) 1989-2019 Cadence Design Systems, Inc. All rights reserved worldwide. Cadence and Spectre are registered trademarks of Cadence Design Systems, Inc. All others are the property of their respective holders.

Includes RSA BSAFE(R) Cryptographic or Security Protocol Software from RSA Security, Inc.

User: rohitbarichello   Host: n01-zeus.olympus.ece.tamu.edu   HostID: A8C00A02   PID: 38839
Memory  available: 99.4078 GB  physical: 540.7671 GB
Linux   : CentOS Linux release 7.9.2009 (Core)
CPU Type: Intel(R) Xeon(R) CPU E5-2650 v3 @ 2.30GHz
        Socket: Processors [Frequency] (Hyperthreaded Processor)
        0:       0 [2600.0] ( 20 ),  2 [1578.3] ( 22 ),  4 [2600.0] ( 24 )
                 6 [2600.0] ( 26 ),  8 [2600.0] ( 28 ), 10 [2600.0] ( 30 )
                12 [2600.0] ( 32 ), 14 [2600.0] ( 34 ), 16 [2600.0] ( 36 )
                18 [2600.0] ( 38 )
        1:       1 [2600.0] ( 21 ),  3 [2600.0] ( 23 ),  5 [2599.9] ( 25 )
                 7 [2600.0] ( 27 ),  9 [2600.0] ( 29 ), 11 [2600.0] ( 31 )
                13 [2599.9] ( 33 ), 15 [1235.1] ( 35 ), 17 [1578.2] ( 37 )
                19 [1208.5] ( 39 )
        
System load averages (1min, 5min, 15min) : 58.0 %, 55.9 %, 52.3 %
Hyperthreading is enabled
Affinity is set by user to processors: 18 38 

Simulating `input.scs' on n01-zeus.olympus.ece.tamu.edu at 8:02:16 PM, Tue Apr 19, 2022 (process id: 38839).
Current working directory: /home/ugrads/r/rohitbarichello/cadence/simulation/nand2_simulate/spectre/schematic/netlist
Environment variable:
    SPECTRE_DEFAULTS=-E
Command line:
    /opt/coe/cadence/SPECTRE181/tools.lnx86/bin/spectre -64 input.scs  \
        +escchars +log ../psf/spectre.out +inter=mpsc  \
        +mpssession=spectre1_6156_2 -format psfxl -raw ../psf  \
        +lqtimeout 900 -maxw 5 -maxn 5 -env ade
spectre pid = 38839

Loading /opt/coe/cadence/SPECTRE181/tools.lnx86/cmi/lib/64bit/5.0/libinfineon_sh.so ...
Loading /opt/coe/cadence/SPECTRE181/tools.lnx86/cmi/lib/64bit/5.0/libphilips_o_sh.so ...
Loading /opt/coe/cadence/SPECTRE181/tools.lnx86/cmi/lib/64bit/5.0/libphilips_sh.so ...
Loading /opt/coe/cadence/SPECTRE181/tools.lnx86/cmi/lib/64bit/5.0/libsparam_sh.so ...
Loading /opt/coe/cadence/SPECTRE181/tools.lnx86/cmi/lib/64bit/5.0/libstmodels_sh.so ...
Reading file:  /home/ugrads/r/rohitbarichello/cadence/simulation/nand2_simulate/spectre/schematic/netlist/input.scs
Reading file:  /opt/coe/cadence/SPECTRE181/tools.lnx86/spectre/etc/configs/mapsubckt.cfg
Reading file:  /opt/coe/cadence/SPECTRE181/tools.lnx86/spectre/etc/configs/spectre.cfg
Reading file:  /usr/include/stdc-predef.h
Reading file:  /home/ugrads/r/rohitbarichello/cadence/models/spectre/tsmc20N.m
Reading file:  /home/ugrads/r/rohitbarichello/cadence/models/spectre/tsmc20P.m
Time for NDB Parsing: CPU = 91.654 ms, elapsed = 216.686 ms.
Time accumulated: CPU = 144.669 ms, elapsed = 216.694 ms.
Peak resident memory used = 60.9 Mbytes.

Time for Elaboration: CPU = 21.772 ms, elapsed = 21.858 ms.
Time accumulated: CPU = 166.671 ms, elapsed = 238.781 ms.
Peak resident memory used = 68.1 Mbytes.


Warning from spectre during hierarchy flattening.
    WARNING (SPECTRE-17101): The value 'psf' specified using the 'checklimitdest' option will no longer be supported in future releases.


Time for EDB Visiting: CPU = 1.437 ms, elapsed = 1.59812 ms.
Time accumulated: CPU = 168.331 ms, elapsed = 240.6 ms.
Peak resident memory used = 68.9 Mbytes.


Warning from spectre during initial setup.
    WARNING (CMI-2426): I0.P0: `Pdiblc2' = -8.75063e-06 is negative.


Global user options:
         psfversion = 1.1.0
            vabstol = 1e-06
            iabstol = 1e-12
               temp = 27
               gmin = 1e-12
             rforce = 1
           maxnotes = 5
           maxwarns = 5
             digits = 5
               cols = 80
             pivrel = 0.001
           sensfile = ../psf/sens.output
     checklimitdest = psf
               save = allpub
             reltol = 0.001
               tnom = 27
             scalem = 1
              scale = 1

Scoped user options:

Circuit inventory:
              nodes 5
            bsim3v3 4     
          capacitor 1     
            vsource 3     

Analysis and control statement inventory:
               info 7     
               tran 1     

Output statements:
             .probe 0     
           .measure 0     
               save 0     


Warning from spectre during initial setup.
    WARNING (CMI-2426): I0.P0: `Pdiblc2' = -8.75063e-06 is negative.

Time for parsing: CPU = 6.6 ms, elapsed = 11.8051 ms.
Time accumulated: CPU = 175.139 ms, elapsed = 252.613 ms.
Peak resident memory used = 70.6 Mbytes.

~~~~~~~~~~~~~~~~~~~~~~
Pre-Simulation Summary
~~~~~~~~~~~~~~~~~~~~~~
~~~~~~~~~~~~~~~~~~~~~~
Entering remote command mode using MPSC service (spectre, ipi, v0.0, spectre1_6156_2, ).

************************************************
Transient Analysis `tran': time = (0 s -> 30 ns)
************************************************

Notice from spectre during IC analysis, during transient analysis `tran'.
    GminDC = 1 pS is large enough to noticeably affect the DC solution.
        dV(I0.net18) = 3.52102 mV
        Use the `gmin_check' option to eliminate or expand this report.

DC simulation time: CPU = 1.307 ms, elapsed = 1.71804 ms.

Opening the PSFXL file ../psf/tran.tran.tran ...
Important parameter values:
    start = 0 s
    outputstart = 0 s
    stop = 30 ns
    step = 30 ps
    maxstep = 600 ps
    ic = all
    useprevic = no
    skipdc = no
    reltol = 1e-03
    abstol(V) = 1 uV
    abstol(I) = 1 pA
    temp = 27 C
    tnom = 27 C
    tempeffects = all
    errpreset = moderate
    method = traponly
    lteratio = 3.5
    relref = sigglobal
    cmin = 0 F
    gmin = 1 pS


Output and IC/nodeset summary:
                 save   3       (current)
                 save   5       (voltage)

    tran: time = 930 ps       (3.1 %), step = 480 ps        (1.6 %)
    tran: time = 2.565 ns    (8.55 %), step = 435 ps       (1.45 %)
    tran: time = 3.795 ns    (12.7 %), step = 100.2 ps     (334 m%)
    tran: time = 5.736 ns    (19.1 %), step = 514.1 ps     (1.71 %)
    tran: time = 6.936 ns    (23.1 %), step = 600 ps          (2 %)

Notice from spectre at time = 7.53583 ns during transient analysis `tran'.
    Found trapezoidal ringing on node I0.net18.
Notice from spectre at time = 8.1 ns during transient analysis `tran'.
    Found trapezoidal ringing on node I0.net18.

    tran: time = 8.262 ns    (27.5 %), step = 29.68 ps    (98.9 m%)
    tran: time = 10.28 ns    (34.3 %), step = 600 ps          (2 %)
    tran: time = 11.48 ns    (38.3 %), step = 600 ps          (2 %)
    tran: time = 13.28 ns    (44.3 %), step = 600 ps          (2 %)

Notice from spectre at time = 14.4797 ns during transient analysis `tran'.
    Found trapezoidal ringing on node V1:p.

    tran: time = 14.48 ns    (48.3 %), step = 600 ps          (2 %)

Notice from spectre at time = 15 ns during transient analysis `tran'.
    Found trapezoidal ringing on node V1:p.

    tran: time = 15.79 ns    (52.6 %), step = 101.2 ps     (337 m%)
    tran: time = 17.69 ns      (59 %), step = 479 ps        (1.6 %)
    tran: time = 18.89 ns      (63 %), step = 600 ps          (2 %)

Notice from spectre at time = 19.4897 ns during transient analysis `tran'.
    Found trapezoidal ringing on node I0.net18.
        Further occurrences of this notice will be suppressed.

    tran: time = 20.27 ns    (67.6 %), step = 34.43 ps     (115 m%)
    tran: time = 22.3 ns     (74.3 %), step = 600 ps          (2 %)
    tran: time = 23.5 ns     (78.3 %), step = 600 ps          (2 %)
    tran: time = 25.3 ns     (84.3 %), step = 600 ps          (2 %)
    tran: time = 26.5 ns     (88.3 %), step = 600 ps          (2 %)
    tran: time = 27.79 ns    (92.6 %), step = 101.4 ps     (338 m%)
    tran: time = 29.67 ns    (98.9 %), step = 467.4 ps     (1.56 %)
Number of accepted tran steps =             179

Notice from spectre during transient analysis `tran'.
    Trapezoidal ringing is detected during tran analysis.
        Please use method=trap for better results and performance.


Maximum value achieved for any signal of each quantity: 
V: V(out) = 1.828 V
I: I(V2:p) = 360.1 uA
If your circuit contains signals of the same quantity that are vastly different in size (such as high voltage circuitry combined with low voltage control circuitry), you should consider specifying global option `bin_relref=yes'.

~~~~~~~~~~~~~~~~~~~~~~~~~~~~~~~~~
Post-Transient Simulation Summary
~~~~~~~~~~~~~~~~~~~~~~~~~~~~~~~~~
   -   To further speed up simulation, consider
          add ++aps on command line
~~~~~~~~~~~~~~~~~~~~~~~~~~~~~~~~~


During simulation, the CPU load for active processors is :
        Spectre 18 (25.4 %)     38 (23.4 %)     
        Other    0 (96.9 %)      1 (100.0 %)     2 (4.8 %)       3 (100.0 %)
                 4 (100.0 %)     5 (9.5 %)       6 (100.0 %)     7 (92.1 %)
                 8 (100.0 %)     9 (100.0 %)    10 (9.5 %)      11 (100.0 %)
                12 (100.0 %)    13 (3.2 %)      14 (100.0 %)    16 (1.6 %)
                20 (83.1 %)     21 (8.1 %)      23 (10.9 %)     24 (3.2 %)
                25 (100.0 %)    26 (3.1 %)      27 (81.5 %)     28 (100.0 %)
                29 (11.1 %)     30 (100.0 %)    31 (9.4 %)      32 (3.2 %)
                33 (100.0 %)    34 (3.1 %)      36 (16.7 %)     39 (1.6 %)
Initial condition solution time: CPU = 1.445 ms, elapsed = 2.01583 ms.
Intrinsic tran analysis time:    CPU = 18.484 ms, elapsed = 45.9371 ms.
Total time required for tran analysis `tran': CPU = 25.905 ms, elapsed = 68.145 ms.
Time accumulated: CPU = 301.381 ms, elapsed = 782.201 ms.
Peak resident memory used = 74.1 Mbytes.


Notice from spectre.
    4 notices suppressed.

finalTimeOP: writing operating point information to rawfile.

Opening the PSF file ../psf/finalTimeOP.info ...
modelParameter: writing model parameter values to rawfile.

Opening the PSF file ../psf/modelParameter.info ...
element: writing instance parameter values to rawfile.

Opening the PSF file ../psf/element.info ...
outputParameter: writing output parameter values to rawfile.

Opening the PSF file ../psf/outputParameter.info ...
designParamVals: writing netlist parameters to rawfile.

Opening the PSFASCII file ../psf/designParamVals.info ...
primitives: writing primitives to rawfile.

Opening the PSFASCII file ../psf/primitives.info.primitives ...
subckts: writing subcircuits to rawfile.

Opening the PSFASCII file ../psf/subckts.info.subckts ...

Aggregate audit (8:05:40 PM, Tue Apr 19, 2022):
Time used: CPU = 327 ms, elapsed = 203 s (3m  23.4s), util. = 161e-03%.
Time spent in licensing: elapsed = 19.1 ms.
Peak memory used = 75.3 Mbytes.
Simulation started at: 8:02:16 PM, Tue Apr 19, 2022, ended at: 8:05:40 PM, Tue Apr 19, 2022, with elapsed time (wall clock): 203 s (3m  23.4s).
spectre completes with 0 errors, 3 warnings, and 9 notices.
