
Spectre (R) Circuit Simulator
Version 18.1.0.421.isr9 64bit -- 17 Jul 2019
Copyright (C) 1989-2019 Cadence Design Systems, Inc. All rights reserved worldwide. Cadence and Spectre are registered trademarks of Cadence Design Systems, Inc. All others are the property of their respective holders.

Includes RSA BSAFE(R) Cryptographic or Security Protocol Software from RSA Security, Inc.

User: rohitbarichello   Host: n01-zeus.olympus.ece.tamu.edu   HostID: A8C00A02   PID: 2488
Memory  available: 97.0433 GB  physical: 540.7671 GB
Linux   : CentOS Linux release 7.9.2009 (Core)
CPU Type: Intel(R) Xeon(R) CPU E5-2650 v3 @ 2.30GHz
        Socket: Processors [Frequency] (Hyperthreaded Processor)
        0:       0 [1372.5] ( 20 ),  2 [1200.1] ( 22 ),  4 [1218.9] ( 24 )
                 6 [1217.1] ( 26 ),  8 [1200.1] ( 28 ), 10 [1247.0] ( 30 )
                12 [1240.1] ( 32 ), 14 [1200.0] ( 34 ), 16 [1291.1] ( 36 )
                18 [1240.5] ( 38 )
        1:       1 [2986.9] ( 21 ),  3 [1300.1] ( 23 ),  5 [1218.8] ( 25 )
                 7 [1200.1] ( 27 ),  9 [1237.6] ( 29 ), 11 [1383.6] ( 31 )
                13 [1250.2] ( 33 ), 15 [1264.3] ( 35 ), 17 [1199.8] ( 37 )
                19 [1200.1] ( 39 )
        
System load averages (1min, 5min, 15min) : 1.2 %, 0.5 %, 0.4 %
Hyperthreading is enabled
Affinity is set by user to processors:  1 21 

Simulating `input.scs' on n01-zeus.olympus.ece.tamu.edu at 11:42:16 PM, Wed Apr 27, 2022 (process id: 2488).
Current working directory: /home/ugrads/r/rohitbarichello/cadence/simulation/4BitAdder_transistor/spectre/schematic/netlist
Environment variable:
    SPECTRE_DEFAULTS=-E
Command line:
    /opt/coe/cadence/SPECTRE181/tools.lnx86/bin/spectre -64 input.scs  \
        +escchars +log ../psf/spectre.out +inter=mpsc  \
        +mpssession=spectre1_39882_1 -format psfxl -raw ../psf  \
        +lqtimeout 900 -maxw 5 -maxn 5 -env ade
spectre pid = 2488

Loading /opt/coe/cadence/SPECTRE181/tools.lnx86/cmi/lib/64bit/5.0/libinfineon_sh.so ...
Loading /opt/coe/cadence/SPECTRE181/tools.lnx86/cmi/lib/64bit/5.0/libphilips_o_sh.so ...
Loading /opt/coe/cadence/SPECTRE181/tools.lnx86/cmi/lib/64bit/5.0/libphilips_sh.so ...
Loading /opt/coe/cadence/SPECTRE181/tools.lnx86/cmi/lib/64bit/5.0/libsparam_sh.so ...
Loading /opt/coe/cadence/SPECTRE181/tools.lnx86/cmi/lib/64bit/5.0/libstmodels_sh.so ...
Reading file:  /home/ugrads/r/rohitbarichello/cadence/simulation/4BitAdder_transistor/spectre/schematic/netlist/input.scs
Reading file:  /opt/coe/cadence/SPECTRE181/tools.lnx86/spectre/etc/configs/mapsubckt.cfg
Reading file:  /opt/coe/cadence/SPECTRE181/tools.lnx86/spectre/etc/configs/spectre.cfg
Reading file:  /usr/include/stdc-predef.h
Reading file:  /home/ugrads/r/rohitbarichello/cadence/models/spectre/tsmc20N.m
Reading file:  /home/ugrads/r/rohitbarichello/cadence/models/spectre/tsmc20P.m
Time for NDB Parsing: CPU = 85.407 ms, elapsed = 198.138 ms.
Time accumulated: CPU = 131.616 ms, elapsed = 198.147 ms.
Peak resident memory used = 61 Mbytes.

Time for Elaboration: CPU = 20.607 ms, elapsed = 20.6079 ms.
Time accumulated: CPU = 152.424 ms, elapsed = 218.954 ms.
Peak resident memory used = 68.4 Mbytes.


Warning from spectre during hierarchy flattening.
    WARNING (SPECTRE-17101): The value 'psf' specified using the 'checklimitdest' option will no longer be supported in future releases.


Time for EDB Visiting: CPU = 2.794 ms, elapsed = 2.79403 ms.
Time accumulated: CPU = 155.411 ms, elapsed = 221.94 ms.
Peak resident memory used = 69.6 Mbytes.


Warning from spectre during initial setup.
    WARNING (CMI-2426): P75: `Pdiblc2' = -8.75063e-06 is negative.
Notice from spectre during topology check.
    No connections to node `0'.
    No DC path from node `net0383' to ground, Gmin installed to provide path.
    No DC path from node `B3' to ground, Gmin installed to provide path.
    No DC path from node `A3' to ground, Gmin installed to provide path.
    No DC path from node `A2' to ground, Gmin installed to provide path.
    No DC path from node `B2' to ground, Gmin installed to provide path.
        Further occurrences of this notice will be suppressed.


Global user options:
         psfversion = 1.1.0
            vabstol = 1e-06
            iabstol = 1e-12
               temp = 27
               gmin = 1e-12
             rforce = 1
           maxnotes = 5
           maxwarns = 5
             digits = 5
               cols = 80
             pivrel = 0.001
           sensfile = ../psf/sens.output
     checklimitdest = psf
               save = allpub
             reltol = 0.001
               tnom = 27
             scalem = 1
              scale = 1

Scoped user options:

Circuit inventory:
              nodes 91
            bsim3v3 144   

Analysis and control statement inventory:
               info 7     
               tran 1     

Output statements:
             .probe 0     
           .measure 0     
               save 0     


Warning from spectre during initial setup.
    WARNING (CMI-2426): P75: `Pdiblc2' = -8.75063e-06 is negative.
Notice from spectre.
    5 notices suppressed.

Time for parsing: CPU = 7.147 ms, elapsed = 9.62114 ms.
Time accumulated: CPU = 162.739 ms, elapsed = 231.742 ms.
Peak resident memory used = 71.5 Mbytes.

~~~~~~~~~~~~~~~~~~~~~~
Pre-Simulation Summary
~~~~~~~~~~~~~~~~~~~~~~

Warning from spectre.
    WARNING (SPECTRE-470): No connections to node `gnd'.

~~~~~~~~~~~~~~~~~~~~~~
Entering remote command mode using MPSC service (spectre, ipi, v0.0, spectre1_39882_1, ).

************************************************
Transient Analysis `tran': time = (0 s -> 30 ns)
************************************************
DC simulation time: CPU = 2.901 ms, elapsed = 2.90298 ms.

Opening the PSFXL file ../psf/tran.tran.tran ...
Important parameter values:
    start = 0 s
    outputstart = 0 s
    stop = 30 ns
    step = 30 ps
    maxstep = 600 ps
    ic = all
    useprevic = no
    skipdc = no
    reltol = 1e-03
    abstol(V) = 1 uV
    abstol(I) = 1 pA
    temp = 27 C
    tnom = 27 C
    tempeffects = all
    errpreset = moderate
    method = traponly
    lteratio = 3.5
    relref = sigglobal
    cmin = 0 F
    gmin = 1 pS


Output and IC/nodeset summary:
                 save   91      (voltage)

    tran: time = 930 ps       (3.1 %), step = 480 ps        (1.6 %)
    tran: time = 2.73 ns      (9.1 %), step = 600 ps          (2 %)
    tran: time = 3.93 ns     (13.1 %), step = 600 ps          (2 %)
    tran: time = 5.73 ns     (19.1 %), step = 600 ps          (2 %)
    tran: time = 6.93 ns     (23.1 %), step = 600 ps          (2 %)
    tran: time = 8.73 ns     (29.1 %), step = 600 ps          (2 %)
    tran: time = 9.93 ns     (33.1 %), step = 600 ps          (2 %)
    tran: time = 11.73 ns    (39.1 %), step = 600 ps          (2 %)
    tran: time = 12.93 ns    (43.1 %), step = 600 ps          (2 %)
    tran: time = 14.73 ns    (49.1 %), step = 600 ps          (2 %)
    tran: time = 15.93 ns    (53.1 %), step = 600 ps          (2 %)
    tran: time = 17.73 ns    (59.1 %), step = 600 ps          (2 %)
    tran: time = 18.93 ns    (63.1 %), step = 600 ps          (2 %)
    tran: time = 20.73 ns    (69.1 %), step = 600 ps          (2 %)
    tran: time = 21.93 ns    (73.1 %), step = 600 ps          (2 %)
    tran: time = 23.73 ns    (79.1 %), step = 600 ps          (2 %)
    tran: time = 24.93 ns    (83.1 %), step = 600 ps          (2 %)
    tran: time = 26.73 ns    (89.1 %), step = 600 ps          (2 %)
    tran: time = 27.93 ns    (93.1 %), step = 600 ps          (2 %)
    tran: time = 29.56 ns    (98.5 %), step = 435 ps       (1.45 %)
Number of accepted tran steps =             54

Maximum value achieved for any signal of each quantity: 
V: V(net086) = 0 V
If your circuit contains signals of the same quantity that are vastly different in size (such as high voltage circuitry combined with low voltage control circuitry), you should consider specifying global option `bin_relref=yes'.

~~~~~~~~~~~~~~~~~~~~~~~~~~~~~~~~~
Post-Transient Simulation Summary
~~~~~~~~~~~~~~~~~~~~~~~~~~~~~~~~~
   -   To further speed up simulation, consider
          add ++aps on command line
~~~~~~~~~~~~~~~~~~~~~~~~~~~~~~~~~


During simulation, the CPU load for active processors is :
        Spectre  1 (26.3 %)     21 (44.2 %)     
        Other    0 (2.1 %)       2 (2.1 %)      11 (17.9 %)     12 (2.1 %)
                13 (3.1 %)      15 (2.1 %)      16 (22.3 %)     17 (1.1 %)
                26 (2.2 %)      31 (13.7 %)     
Initial condition solution time: CPU = 3.007 ms, elapsed = 3.01099 ms.
Intrinsic tran analysis time:    CPU = 48.229 ms, elapsed = 100.968 ms.
Total time required for tran analysis `tran': CPU = 59.344 ms, elapsed = 126.061 ms.
Time accumulated: CPU = 348.266 ms, elapsed = 1.08199 s.
Peak resident memory used = 74.9 Mbytes.

finalTimeOP: writing operating point information to rawfile.

Opening the PSF file ../psf/finalTimeOP.info ...
modelParameter: writing model parameter values to rawfile.

Opening the PSF file ../psf/modelParameter.info ...
element: writing instance parameter values to rawfile.

Opening the PSF file ../psf/element.info ...
outputParameter: writing output parameter values to rawfile.

Opening the PSF file ../psf/outputParameter.info ...
designParamVals: writing netlist parameters to rawfile.

Opening the PSFASCII file ../psf/designParamVals.info ...
primitives: writing primitives to rawfile.

Opening the PSFASCII file ../psf/primitives.info.primitives ...
subckts: writing subcircuits to rawfile.

Opening the PSFASCII file ../psf/subckts.info.subckts ...

Aggregate audit (11:47:48 PM, Wed Apr 27, 2022):
Time used: CPU = 397 ms, elapsed = 332 s (5m  32.2s), util. = 119e-03%.
Time spent in licensing: elapsed = 26.9 ms.
Peak memory used = 76 Mbytes.
Simulation started at: 11:42:16 PM, Wed Apr 27, 2022, ended at: 11:47:48 PM, Wed Apr 27, 2022, with elapsed time (wall clock): 332 s (5m  32.2s).
spectre completes with 0 errors, 4 warnings, and 8 notices.
